
**** 02/11/19 19:21:27 ***** PSpice 16.6.0 (October 2012) ***** ID# 0 ********

 ** Profile: "SCHEMATIC9-Stetho"  [ H:\Documents\Labs\arehmanspicelabs-pspicefiles\schematic9\stetho.sim ] 


 ****     CIRCUIT DESCRIPTION


******************************************************************************




** Creating circuit file "Stetho.cir" 
** WARNING: THIS AUTOMATICALLY GENERATED FILE MAY BE OVERWRITTEN BY SUBSEQUENT SIMULATIONS

*Libraries: 
* Profile Libraries :
* Local Libraries :
* From [PSPICE NETLIST] section of H:\cdssetup\OrCAD_PSpice/16.6.0/PSpice.ini file:
.lib "nom.lib" 

*Analysis directives: 
.TRAN  0 20ms 0 
.OPTIONS ADVCONV
.PROBE64 V(alias(*)) I(alias(*)) W(alias(*)) D(alias(*)) NOISE(alias(*)) 
.INC "..\SCHEMATIC9.net" 



**** INCLUDING SCHEMATIC9.net ****
* source AREHMANSPICELABS
V_V1         N01945 0 15
X_U1A         0 N01909 N01945 N01959 N01919 OP-471A
R_R1         N01899 N01909  1k TC=0,0 
R_R2         N01909 N01919  170k TC=0,0 
V_V2         0 N01959 15
R_R4         N02454 N02464  5k TC=0,0 
V_V5         0 N02504 15
X_U1B         0 N02454 N02490 N02504 N02464 OP-471A
R_R3         N01919 N02454  1k TC=0,0 
V_V4         N02490 0 15
R_R10         N03889 0  53051.65 TC=0,0 
R_R8         N03925 N03871  26525.8 TC=0,0 
R_R7         N03202 N03126  7957.75 TC=0,0 
V_V8         N03106 0 15
V_V11         N03851 0 15
C_C1         N03152 N03126  100n  TC=0,0 
C_C2         0 N03156  100n  TC=0,0 
V_V9         0 N03116 15
V_V12         0 N03861 15
R_R5         N02464 N03152  3978.9 TC=0,0 
R_R9         N03885 N03871  53051.65 TC=0,0 
X_U1C         N03156 N03202 N03106 N03116 N03126 OP-471A
C_C4         N03885 N03889  100n  TC=0,0 
X_U1D         N03889 N03925 N03851 N03861 N03871 OP-471A
R_R6         N03152 N03156  3978.9 TC=0,0 
C_C3         N03126 N03885  100n  TC=0,0 
X_U2A         N03871 N04462 N04430 N04438 N04450 OP-471A
V_V13         N04430 0 15
R_R11         N04462 N04450  13k TC=0,0 
R_R12         0 N04462  1 TC=0,0 
V_V14         0 N04438 15
V_V16         N05026 0 10
R_R16         N04962 N04990  5k TC=0,0 
R_R13         N04450 N04962  28.6k TC=0,0 
X_U2B         N05018 N04962 N05038 N05026 N04990 OP-471A
R_R17         0 N05018  5k TC=0,0 
V_V15         0 N05038 10
R_R15         N04950 N04962  28.6k TC=0,0 
V_V18         N04950 0 13.9
V_V19         N01899 0  AC 0
+SIN 0 3m 200 0 0 0

**** RESUMING Stetho.cir ****
.END

**** 02/11/19 19:21:27 ***** PSpice 16.6.0 (October 2012) ***** ID# 0 ********

 ** Profile: "SCHEMATIC9-Stetho"  [ H:\Documents\Labs\arehmanspicelabs-pspicefiles\schematic9\stetho.sim ] 


 ****     Diode MODEL PARAMETERS


******************************************************************************




               X_U1A.dx        X_U1A.dy        X_U1B.dx        X_U1B.dy        
          IS  800.000000E-18  800.000000E-18  800.000000E-18  800.000000E-18 
          RS                    1.000000E-03                    1.000000E-03 
         CJO                   10.000000E-12                   10.000000E-12 


               X_U1C.dx        X_U1C.dy        X_U1D.dx        X_U1D.dy        
          IS  800.000000E-18  800.000000E-18  800.000000E-18  800.000000E-18 
          RS                    1.000000E-03                    1.000000E-03 
         CJO                   10.000000E-12                   10.000000E-12 


               X_U2A.dx        X_U2A.dy        X_U2B.dx        X_U2B.dy        
          IS  800.000000E-18  800.000000E-18  800.000000E-18  800.000000E-18 
          RS                    1.000000E-03                    1.000000E-03 
         CJO                   10.000000E-12                   10.000000E-12 


**** 02/11/19 19:21:27 ***** PSpice 16.6.0 (October 2012) ***** ID# 0 ********

 ** Profile: "SCHEMATIC9-Stetho"  [ H:\Documents\Labs\arehmanspicelabs-pspicefiles\schematic9\stetho.sim ] 


 ****     BJT MODEL PARAMETERS


******************************************************************************




               X_U1A.qx        X_U1B.qx        X_U1C.qx        X_U1D.qx        
               NPN             NPN             NPN             NPN             
       LEVEL    1               1               1               1            
          IS  800.000000E-18  800.000000E-18  800.000000E-18  800.000000E-18 
          BF    7.500000E+03    7.500000E+03    7.500000E+03    7.500000E+03 
          NF    1               1               1               1            
          BR    1               1               1               1            
          NR    1               1               1               1            
         ISS    0               0               0               0            
          RE    0               0               0               0            
          RC    0               0               0               0            
         CJE    0               0               0               0            
         VJE     .75             .75             .75             .75         
         CJC    0               0               0               0            
         VJC     .75             .75             .75             .75         
         MJC     .33             .33             .33             .33         
        XCJC    1               1               1               1            
         CJS    0               0               0               0            
         VJS     .75             .75             .75             .75         
          KF    0               0               0               0            
          AF    1               1               1               1            
          CN    2.42            2.42            2.42            2.42         
           D     .87             .87             .87             .87         


               X_U2A.qx        X_U2B.qx        
               NPN             NPN             
       LEVEL    1               1            
          IS  800.000000E-18  800.000000E-18 
          BF    7.500000E+03    7.500000E+03 
          NF    1               1            
          BR    1               1            
          NR    1               1            
         ISS    0               0            
          RE    0               0            
          RC    0               0            
         CJE    0               0            
         VJE     .75             .75         
         CJC    0               0            
         VJC     .75             .75         
         MJC     .33             .33         
        XCJC    1               1            
         CJS    0               0            
         VJS     .75             .75         
          KF    0               0            
          AF    1               1            
          CN    2.42            2.42         
           D     .87             .87         


ERROR -- Convergence problem in transient bias point calculation


  Last node voltages tried were:

 NODE   VOLTAGE     NODE   VOLTAGE     NODE   VOLTAGE     NODE   VOLTAGE


(N01899)    0.0000 (N01909) 1.476E-06 (N01919) 447.2E-06 (N01945)    1.1210     

(N01959)   -1.1210 (N02454) 8.453E-06 (N02464)    -.0022 (N02490)    1.1210     

(N02504)   -1.1210 (N03106)    1.1210 (N03116)   -1.1210 (N03126)    -.0022     

(N03152)    -.0022 (N03156)    -.0022 (N03202)    -.0022 (N03851)    1.1210     

(N03861)   -1.1210 (N03871)-6.346E-06 (N03885)-175.9E-06 (N03889)-39.42E-06     

(N03925)-36.75E-06 (N04430)    1.1210 (N04438)   -1.1210 (N04450)    -.0025     

(N04462)-189.9E-09 (N04950)    1.0388 (N04962)    -.0699 (N04990) 906.3E-06     

(N05018)    -.1088 (N05026)     .7473 (N05038)    -.7473 (X_U1A.6)-1.305E-06    

(X_U1A.7) 447.2E-06                   (X_U1A.8) 447.2E-06                       

(X_U1A.9)    0.0000                   (X_U1B.6) 6.358E-06                       

(X_U1B.7)    -.0022                   (X_U1B.8)    -.0022                       

(X_U1B.9)    0.0000                   (X_U1C.6) 6.283E-06                       

(X_U1C.7)    -.0022                   (X_U1C.8)    -.0022                       

(X_U1C.9)    0.0000                   (X_U1D.6) 18.51E-09                       

(X_U1D.7)-6.346E-06                   (X_U1D.8)-6.346E-06                       

(X_U1D.9)    0.0000                   (X_U2A.6) 7.157E-06                       

(X_U2A.7)    -.0025                   (X_U2A.8)    -.0025                       

(X_U2A.9)    0.0000                   (X_U2B.6)    -.0727                       

(X_U2B.7)     .0039                   (X_U2B.8)     .0039                       

(X_U2B.9)    0.0000                   (X_U1A.10)    -.6026                      

(X_U1A.11)    1.1140                  (X_U1A.12)    1.1140                      

(X_U1A.13)    -.5974                  (X_U1A.14)    -.5974                      

(X_U1A.53)     .9715                  (X_U1A.54)    -.9715                      

(X_U1A.90) 17.65E-06                  (X_U1A.91)    1.8683                      

(X_U1A.92)   -1.8683                  (X_U1A.99)    0.0000                      

(X_U1B.10)    -.6026                  (X_U1B.11)    1.1140                      

(X_U1B.12)    1.1140                  (X_U1B.13)    -.5974                      

(X_U1B.14)    -.5974                  (X_U1B.53)     .9715                      

(X_U1B.54)    -.9715                  (X_U1B.90)-17.54E-06                      

(X_U1B.91)    1.8683                  (X_U1B.92)   -1.8683                      

(X_U1B.99)    0.0000                  (X_U1C.10)    -.6048                      

(X_U1C.11)    1.1140                  (X_U1C.12)    1.1140                      

(X_U1C.13)    -.5996                  (X_U1C.14)    -.5996                      

(X_U1C.53)     .9715                  (X_U1C.54)    -.9715                      

(X_U1C.90)-67.81E-09                  (X_U1C.91)    1.8683                      

(X_U1C.92)   -1.8683                  (X_U1C.99)    0.0000                      

(X_U1D.10)    -.6026                  (X_U1D.11)    1.1140                      

(X_U1D.12)    1.1140                  (X_U1D.13)    -.5975                      

(X_U1D.14)    -.5975                  (X_U1D.53)     .9715                      

(X_U1D.54)    -.9715                  (X_U1D.90) 219.7E-09                      

(X_U1D.91)    1.8683                  (X_U1D.92)   -1.8683                      

(X_U1D.99)    0.0000                  (X_U2A.10)    -.6026                      

(X_U2A.11)    1.1140                  (X_U2A.12)    1.1140                      

(X_U2A.13)    -.5974                  (X_U2A.14)    -.5974                      

(X_U2A.53)     .9715                  (X_U2A.54)    -.9715                      

(X_U2A.90) 86.75E-06                  (X_U2A.91)    1.8683                      

(X_U2A.92)   -1.8683                  (X_U2A.99)    0.0000                      

(X_U2B.10)    -.7318                  (X_U2B.11)    -.7154                      

(X_U2B.12)    -.7303                  (X_U2B.13)    -.7221                      

(X_U2B.14)    -.7313                  (X_U2B.53)    -.8968                      

(X_U2B.54)     .8968                  (X_U2B.90)    2.4021                      

(X_U2B.91)    1.8683                  (X_U2B.92)   -1.8683                      

(X_U2B.99)    0.0000                  


  These supply currents failed to converge:

    I(V_V16)                  =   -10.00GA  \   -10.00GA
    I(V_V15)                  =   -10.00GA  \   -10.00GA

**** Interrupt ****
